Version 4
SHEET 1 880 1000
WIRE -384 128 -448 128
WIRE -208 128 -304 128
WIRE 48 160 0 160
WIRE 48 192 48 160
WIRE 304 208 240 208
WIRE 48 240 0 240
WIRE -448 256 -448 128
WIRE -448 256 -464 256
WIRE -384 256 -448 256
WIRE -208 256 -304 256
WIRE 304 272 240 272
WIRE 48 320 48 288
WIRE 48 320 0 320
WIRE -448 384 -448 256
WIRE -384 384 -448 384
WIRE -192 384 -304 384
WIRE -448 512 -448 384
WIRE -384 512 -448 512
WIRE -208 512 -304 512
WIRE 128 624 16 624
WIRE 384 624 240 624
WIRE 528 640 496 640
WIRE 608 640 528 640
WIRE 128 656 80 656
WIRE 384 656 336 656
WIRE 336 704 336 656
WIRE 496 704 336 704
WIRE 80 720 80 656
WIRE 80 720 32 720
WIRE 528 720 528 640
WIRE 528 720 336 720
WIRE 80 784 80 720
WIRE 128 784 80 784
WIRE 336 784 336 720
WIRE 384 784 336 784
WIRE 496 800 496 704
WIRE 608 800 496 800
WIRE 128 816 16 816
WIRE 384 816 240 816
FLAG 304 208 Q1
IOPIN 304 208 Out
FLAG 304 272 Q1bar
IOPIN 304 272 Out
FLAG -464 256 0
FLAG 0 160 J
IOPIN 0 160 In
FLAG -208 128 CLK
IOPIN -208 128 In
FLAG -208 256 K
IOPIN -208 256 In
FLAG -192 384 J
IOPIN -192 384 In
FLAG 0 240 CLK
IOPIN 0 240 In
FLAG 0 320 K
IOPIN 0 320 In
FLAG 16 624 J
IOPIN 16 624 In
FLAG 32 720 CLK2
IOPIN 32 720 In
FLAG 16 816 K
IOPIN 16 816 In
FLAG 608 640 Q2
IOPIN 608 640 Out
FLAG 608 800 Q2bar
IOPIN 608 800 Out
FLAG 144 432 0
FLAG 128 592 Q2bar
IOPIN 128 592 In
FLAG 128 848 Q2
IOPIN 128 848 In
FLAG -208 512 CLK2
IOPIN -208 512 In
SYMBOL ZZZ\\LOGIC\\74HC\\74hc107 144 128 R0
SYMATTR InstName JK
SYMBOL voltage -288 128 R90
WINDOW 0 -32 56 VBottom 2
WINDOW 3 32 56 VTop 2
WINDOW 123 0 0 Left 0
WINDOW 39 0 0 Left 0
SYMATTR InstName CLK
SYMATTR Value PULSE(0 5 0.1u 1n 1n 0.05u 0.2u)
SYMBOL voltage -288 384 R90
WINDOW 0 -32 56 VBottom 2
WINDOW 3 32 56 VTop 2
WINDOW 123 0 0 Left 0
WINDOW 39 0 0 Left 0
SYMATTR InstName J
SYMATTR Value PULSE(0 5 0.1u 1n 1n 0.3u 0.5u)
SYMBOL voltage -288 256 R90
WINDOW 0 -32 56 VBottom 2
WINDOW 3 32 56 VTop 2
WINDOW 123 0 0 Left 0
WINDOW 39 0 0 Left 0
SYMATTR InstName K
SYMATTR Value PULSE(0 5 0.35u 1n 1n 0.2u 0.75u)
SYMBOL voltage 144 336 R0
WINDOW 123 0 0 Left 0
WINDOW 39 0 0 Left 0
SYMATTR InstName V1
SYMATTR Value 5
SYMBOL ZZZ\\LOGIC\\74HC\\74hc10 176 544 R0
SYMATTR InstName U1
SYMBOL ZZZ\\LOGIC\\74HC\\74hc10 176 736 R0
SYMATTR InstName U2
SYMBOL ZZZ\\LOGIC\\74HC\\74hc00 432 576 R0
SYMATTR InstName U3
SYMBOL ZZZ\\LOGIC\\74HC\\74hc00 432 736 R0
SYMATTR InstName U4
SYMBOL voltage -288 512 R90
WINDOW 0 -32 56 VBottom 2
WINDOW 3 32 56 VTop 2
WINDOW 123 0 0 Left 0
WINDOW 39 0 0 Left 0
SYMATTR InstName CLK1
SYMATTR Value PULSE(0 5 0.15u 1n 1n 0.15u 0.2u)
TEXT -848 528 Left 2 !.tran 2u
