Version 4
SHEET 1 880 984
WIRE -32 -240 -96 -240
WIRE 144 -240 48 -240
WIRE -96 -112 -96 -240
WIRE -96 -112 -112 -112
WIRE -32 -112 -96 -112
WIRE 144 -112 48 -112
WIRE -96 16 -96 -112
WIRE -32 16 -96 16
WIRE 160 16 48 16
WIRE 48 160 0 160
WIRE 48 192 48 160
WIRE 304 208 240 208
WIRE 48 240 0 240
WIRE 304 272 240 272
WIRE 48 320 48 288
WIRE 48 320 0 320
WIRE 144 688 32 688
WIRE 400 688 256 688
WIRE 544 704 512 704
WIRE 624 704 544 704
WIRE 144 720 96 720
WIRE 400 720 352 720
WIRE 352 768 352 720
WIRE 512 768 352 768
WIRE 96 784 96 720
WIRE 96 784 48 784
WIRE 544 784 544 704
WIRE 544 784 352 784
WIRE 96 848 96 784
WIRE 144 848 96 848
WIRE 352 848 352 784
WIRE 400 848 352 848
WIRE 512 864 512 768
WIRE 624 864 512 864
WIRE 144 880 32 880
WIRE 400 880 256 880
FLAG 304 208 Q1
IOPIN 304 208 Out
FLAG 304 272 Q1bar
IOPIN 304 272 Out
FLAG -112 -112 0
FLAG 0 160 J
IOPIN 0 160 In
FLAG 144 -240 CLK
IOPIN 144 -240 In
FLAG 144 -112 K
IOPIN 144 -112 In
FLAG 160 16 J
IOPIN 160 16 In
FLAG 0 240 CLK
IOPIN 0 240 In
FLAG 0 320 K
IOPIN 0 320 In
FLAG 32 688 J
IOPIN 32 688 In
FLAG 48 784 CLK
IOPIN 48 784 In
FLAG 32 880 K
IOPIN 32 880 In
FLAG 624 704 Q2
IOPIN 624 704 Out
FLAG 624 864 Q2bar
IOPIN 624 864 Out
FLAG 144 432 0
FLAG 144 656 Q2bar
IOPIN 144 656 In
FLAG 144 912 Q2
IOPIN 144 912 In
SYMBOL ZZZ\\LOGIC\\74HC\\74hc107 144 128 R0
SYMATTR InstName JK
SYMBOL voltage 64 -240 R90
WINDOW 0 -32 56 VBottom 2
WINDOW 3 32 56 VTop 2
WINDOW 123 0 0 Left 0
WINDOW 39 0 0 Left 0
SYMATTR InstName CLK
SYMATTR Value PULSE(0 5 0.1u 1n 1n 0.15u 0.2u)
SYMBOL voltage 64 16 R90
WINDOW 0 -32 56 VBottom 2
WINDOW 3 32 56 VTop 2
WINDOW 123 0 0 Left 0
WINDOW 39 0 0 Left 0
SYMATTR InstName J
SYMATTR Value PULSE(0 5 0.4u 1n 1n 0.25u 0.75u)
SYMBOL voltage 64 -112 R90
WINDOW 0 -32 56 VBottom 2
WINDOW 3 32 56 VTop 2
WINDOW 123 0 0 Left 0
WINDOW 39 0 0 Left 0
SYMATTR InstName K
SYMATTR Value PULSE(0 5 0.05u 1n 1n 0.25u 0.5u)
SYMBOL voltage 144 336 R0
WINDOW 123 0 0 Left 0
WINDOW 39 0 0 Left 0
SYMATTR InstName V1
SYMATTR Value 0
SYMBOL ZZZ\\LOGIC\\74HC\\74hc10 192 608 R0
SYMATTR InstName U1
SYMBOL ZZZ\\LOGIC\\74HC\\74hc10 192 800 R0
SYMATTR InstName U2
SYMBOL ZZZ\\LOGIC\\74HC\\74hc00 448 640 R0
SYMATTR InstName U3
SYMBOL ZZZ\\LOGIC\\74HC\\74hc00 448 800 R0
SYMATTR InstName U4
TEXT -200 400 Left 2 !.tran 2u
