Version 4
SHEET 1 880 680
WIRE 544 -16 352 -16
WIRE 544 16 544 -16
WIRE 352 48 352 -16
WIRE 304 128 144 128
WIRE 144 160 144 128
FLAG 144 240 0
FLAG 544 96 0
FLAG 352 144 0
SYMBOL voltage 144 144 R0
WINDOW 123 0 0 Left 0
WINDOW 39 0 0 Left 0
SYMATTR InstName V1
SYMATTR Value 0
SYMBOL voltage 544 0 R0
WINDOW 123 0 0 Left 0
WINDOW 39 0 0 Left 0
SYMATTR InstName V2
SYMATTR Value 5
SYMBOL nmos 304 48 R0
SYMATTR InstName M1
SYMATTR Value HAT2165H
TEXT 110 280 Left 2 !.dc V1 0 3.5 0.01
