Version 4
SHEET 1 1184 680
WIRE 336 -176 208 -176
WIRE 576 -176 416 -176
WIRE 208 -96 208 -176
WIRE 400 -96 208 -96
WIRE 208 -64 208 -96
WIRE 400 -64 400 -96
WIRE 160 0 -144 0
WIRE 576 0 576 -176
WIRE 208 48 208 0
WIRE 400 48 400 0
WIRE 400 48 208 48
WIRE -144 208 -144 80
WIRE 208 208 208 48
WIRE 208 208 -144 208
WIRE 576 208 576 80
WIRE 576 208 208 208
FLAG 208 208 0
SYMBOL voltage -144 -16 R0
WINDOW 0 -68 36 Left 2
WINDOW 3 -421 115 Left 2
WINDOW 123 0 0 Left 0
WINDOW 39 0 0 Left 0
SYMATTR InstName V1
SYMATTR Value PULSE(0 2 0.005 0 0 0.002m 0.02)
SYMBOL voltage 576 -16 R0
WINDOW 123 0 0 Left 0
WINDOW 39 0 0 Left 0
SYMATTR InstName V2
SYMATTR Value SINE(0 200 50)
SYMBOL Misc\\SCR 192 -64 R0
SYMATTR InstName U1
SYMATTR Value EC103D3
SYMBOL res 432 -192 R90
WINDOW 0 0 56 VBottom 2
WINDOW 3 32 56 VTop 2
SYMATTR InstName R1
SYMATTR Value 10
SYMBOL schottky 416 0 R180
WINDOW 0 24 64 Left 2
WINDOW 3 -77 4 Left 2
SYMATTR InstName D1
SYMATTR Value 1N5817
SYMATTR Description Diode
SYMATTR Type diode
TEXT 32 376 Left 2 !.param f = 50
TEXT -176 400 Left 2 !.tran 0.1
TEXT 48 328 Left 2 !.lib Thyristor_SCR_EC103xx_SxSx_A_SPICE_Model_lib.lib
